Circuit: * C:\Users\afzal\OneDrive\Desktop\2.4 GHz PLL\Design Files\VCO\VCO_clk.asc

Ignoring BSIM parameter ACM
Ignoring BSIM parameter HDIF
Ignoring BSIM parameter XL
Ignoring BSIM parameter XW
Ignoring BSIM parameter ACM
Ignoring BSIM parameter HDIF
Ignoring BSIM parameter XL
Ignoring BSIM parameter XW
Warning: Pd = 0 is less than W.
Warning: Ps = 0 is less than W.
Warning: Pd = 0 is less than W.
Warning: Ps = 0 is less than W.
Warning: Pd = 0 is less than W.
Warning: Ps = 0 is less than W.
Warning: Pd = 0 is less than W.
Warning: Ps = 0 is less than W.
Warning: Pd = 0 is less than W.
Warning: Ps = 0 is less than W.
Warning: Pd = 0 is less than W.
Warning: Ps = 0 is less than W.
Warning: Pd = 0 is less than W.
Warning: Ps = 0 is less than W.
Warning: Pd = 0 is less than W.
Warning: Ps = 0 is less than W.
Warning: Pd = 0 is less than W.
Warning: Ps = 0 is less than W.
Warning: Pd = 0 is less than W.
Warning: Ps = 0 is less than W.
Warning: Pd = 0 is less than W.
Warning: Ps = 0 is less than W.
Direct Newton iteration for .op point succeeded.

t1: time=4.1724e-008 at 4.1724e-008
t2: time=4.21374e-008 at 4.21374e-008
frequency: (1/period)=2.41868e+009
period: (t2 - t1)=4.13448e-010


Date: Thu Apr 24 17:32:06 2025
Total elapsed time: 0.434 seconds.

tnom = 27
temp = 27
method = modified trap
totiter = 24496
traniter = 24480
tranpoints = 7477
accept = 5537
rejected = 1940
matrix size = 17
fillins = 2
solver = Normal
Matrix Compiler1: 1.31 KB object code size  0.3/0.1/[0.1]
Matrix Compiler2: 1.51 KB object code size  0.2/0.2/[0.1]

