Circuit: * C:\Users\afzal\OneDrive\Desktop\2.4 GHz PLL\Design Files\PFD\PFD_SIR.asc

Ignoring BSIM parameter ACM
Ignoring BSIM parameter HDIF
Ignoring BSIM parameter XL
Ignoring BSIM parameter XW
Ignoring BSIM parameter ACM
Ignoring BSIM parameter HDIF
Ignoring BSIM parameter XL
Ignoring BSIM parameter XW
Warning: Pd = 0 is less than W.
Warning: Ps = 0 is less than W.
Warning: Pd = 0 is less than W.
Warning: Ps = 0 is less than W.
Warning: Pd = 0 is less than W.
Warning: Ps = 0 is less than W.
Warning: Pd = 0 is less than W.
Warning: Ps = 0 is less than W.
Warning: Pd = 0 is less than W.
Warning: Ps = 0 is less than W.
Warning: Pd = 0 is less than W.
Warning: Ps = 0 is less than W.
Direct Newton iteration failed to find .op point.  (Use ".option noopiter" to skip.)
Starting Gmin stepping
Gmin = 10
Gmin = 1.07374
Gmin = 0.115292
Gmin = 0.0123794
Gmin = 0.00132923
Gmin = 0.000142725
Gmin = 1.5325e-005
Gmin = 1.6455e-006
Gmin = 1.76685e-007
Gmin = 1.89714e-008
Gmin = 2.03704e-009
Gmin = 2.18725e-010
Gmin = 2.34854e-011
Gmin = 2.52173e-012
Gmin = 2.70769e-013
Gmin = 0
Gmin stepping succeeded in finding the operating point.


Date: Thu Apr 24 17:35:46 2025
Total elapsed time: 1.307 seconds.

tnom = 27
temp = 27
method = modified trap
totiter = 51695
traniter = 51294
tranpoints = 13348
accept = 10239
rejected = 3109
matrix size = 35
fillins = 12
solver = Normal
Thread vector: 27.9/12.1[5] 10.0/3.8[5] 4.0/2.8[4] 0.2/0.7[1]  2592/500
Matrix Compiler1: 5.54 KB object code size  1.2/0.7/[0.5]
Matrix Compiler2: 4.16 KB object code size  0.7/0.5/[0.3]

