Circuit: * C:\Users\afzal\OneDrive\Desktop\2.4 GHz PLL\Design Files\CP_LF\CP_New.asc

Ignoring BSIM parameter ACM
Ignoring BSIM parameter HDIF
Ignoring BSIM parameter XL
Ignoring BSIM parameter XW
Ignoring BSIM parameter ACM
Ignoring BSIM parameter HDIF
Ignoring BSIM parameter XL
Ignoring BSIM parameter XW
Warning: Pd = 0 is less than W.
Warning: Ps = 0 is less than W.
Warning: Pd = 0 is less than W.
Warning: Ps = 0 is less than W.
Direct Newton iteration for .op point succeeded.

Date: Thu Apr 24 17:36:52 2025
Total elapsed time: 0.168 seconds.

tnom = 27
temp = 27
method = modified trap
totiter = 6344
traniter = 6314
tranpoints = 2670
accept = 2405
rejected = 265
matrix size = 13
fillins = 0
solver = Normal
Matrix Compiler1: 630 bytes object code size  0.2/0.1/[0.1]
Matrix Compiler2: 1.05 KB object code size  0.1/0.2/[0.1]

