Circuit: * C:\Users\afzal\OneDrive\Desktop\2.4 GHz PLL\Design Files\Divider\final_div.asc

Ignoring BSIM parameter ACM
Ignoring BSIM parameter HDIF
Ignoring BSIM parameter XL
Ignoring BSIM parameter XW
Ignoring BSIM parameter ACM
Ignoring BSIM parameter HDIF
Ignoring BSIM parameter XL
Ignoring BSIM parameter XW
Warning: Pd = 0 is less than W.
Warning: Ps = 0 is less than W.
Warning: Pd = 0 is less than W.
Warning: Ps = 0 is less than W.
Warning: Pd = 0 is less than W.
Warning: Ps = 0 is less than W.
Warning: Pd = 0 is less than W.
Warning: Ps = 0 is less than W.
Direct Newton iteration failed to find .op point.  (Use ".option noopiter" to skip.)
Starting Gmin stepping
Gmin = 10
Gmin = 1.07374
Gmin = 0.115292
Gmin = 0.0123794
Gmin = 0.00132923
Gmin = 0.000142725
Gmin = 1.5325e-005
Gmin = 1.6455e-006
Gmin = 1.76685e-007
Gmin = 1.89714e-008
Gmin = 2.03704e-009
Gmin = 2.18725e-010
Gmin = 2.34854e-011
Gmin = 2.52173e-012
Gmin = 2.70769e-013
Gmin = 0
Gmin stepping succeeded in finding the operating point.


Date: Thu Apr 24 17:33:29 2025
Total elapsed time: 0.524 seconds.

tnom = 27
temp = 27
method = modified trap
totiter = 16167
traniter = 15727
tranpoints = 5106
accept = 4106
rejected = 1000
matrix size = 39
fillins = 26
solver = Normal
Thread vector: 26.9/19.7[5] 8.2/2.6[5] 2.4/9.8[1] 0.2/1.0[1]  2592/500
Matrix Compiler1: 6.00 KB object code size  1.5/0.7/[0.5]
Matrix Compiler2: 5.33 KB object code size  0.8/1.0/[0.4]

