Circuit: * C:\Users\afzal\OneDrive\Desktop\try\PLL1\dff_tb.asc

Ignoring BSIM parameter ACM
Ignoring BSIM parameter HDIF
Ignoring BSIM parameter XL
Ignoring BSIM parameter XW
Ignoring BSIM parameter ACM
Ignoring BSIM parameter HDIF
Ignoring BSIM parameter XL
Ignoring BSIM parameter XW
Warning: Pd = 0 is less than W.
Warning: Ps = 0 is less than W.
Warning: Pd = 0 is less than W.
Warning: Ps = 0 is less than W.
Warning: Pd = 0 is less than W.
Warning: Ps = 0 is less than W.
Warning: Pd = 0 is less than W.
Warning: Ps = 0 is less than W.
Direct Newton iteration for .op point succeeded.

Date: Thu Apr 17 13:28:41 2025
Total elapsed time: 0.250 seconds.

tnom = 27
temp = 27
method = modified trap
totiter = 4531
traniter = 4492
tranpoints = 1928
accept = 1699
rejected = 229
matrix size = 13
fillins = 0
solver = Normal
Matrix Compiler1: 764 bytes object code size  0.3/0.1/[0.1]
Matrix Compiler2: 1.31 KB object code size  0.2/0.3/[0.2]

